Version 4
SHEET 1 1100 680
WIRE 64 -240 32 -240
WIRE 192 -240 144 -240
WIRE 32 -208 32 -240
WIRE 192 -208 192 -240
WIRE 272 -208 192 -208
WIRE -160 -48 -256 -48
WIRE -48 -48 -160 -48
WIRE 16 -48 -48 -48
WIRE 192 -48 192 -208
WIRE 192 -48 96 -48
WIRE -256 0 -256 -48
WIRE -160 0 -160 -48
WIRE -48 0 -48 -48
WIRE -256 96 -256 80
WIRE -160 96 -160 64
WIRE 192 128 192 -48
WIRE 160 144 64 144
WIRE 336 160 224 160
WIRE 400 160 336 160
WIRE 480 160 400 160
WIRE 656 160 656 128
WIRE 656 160 544 160
WIRE 784 160 656 160
WIRE 1008 160 880 160
WIRE -624 176 -624 144
WIRE -464 176 -624 176
WIRE -416 176 -464 176
WIRE -48 176 -48 80
WIRE -48 176 -352 176
WIRE 16 176 16 144
WIRE 16 176 -48 176
WIRE 160 176 16 176
WIRE 784 176 752 176
WIRE 400 192 400 160
WIRE -624 208 -624 176
WIRE -464 208 -464 176
WIRE 192 208 192 192
WIRE 752 224 752 176
WIRE 400 304 400 272
WIRE -624 320 -624 288
WIRE -464 320 -464 288
WIRE 64 320 64 144
WIRE 144 320 64 320
WIRE 336 320 336 160
WIRE 336 320 224 320
WIRE 64 352 64 320
WIRE 400 400 400 368
WIRE 64 480 64 432
WIRE 64 592 64 544
FLAG 192 208 0
FLAG 400 400 0
FLAG 752 224 0
FLAG 64 592 0
FLAG -464 320 0
FLAG -256 96 0
FLAG -160 96 0
FLAG 32 -208 0
FLAG -624 320 0
FLAG -624 144 IN
FLAG 656 128 OUT
FLAG 16 144 OPP
FLAG 272 -208 PWR
FLAG 1008 160 SPPA
SYMBOL res 384 176 R0
SYMATTR InstName R1
SYMATTR Value 1R
SYMBOL cap 384 304 R0
SYMATTR InstName C1
SYMATTR Value 0.22µF
SYMBOL cap 544 144 R90
WINDOW 0 0 32 VBottom 2
WINDOW 3 32 32 VTop 2
SYMATTR InstName C2
SYMATTR Value 2200µF
SYMBOL res 240 304 R90
WINDOW 0 0 56 VBottom 2
WINDOW 3 32 56 VTop 2
SYMATTR InstName R3
SYMATTR Value 190K
SYMBOL res 80 448 R180
WINDOW 0 36 76 Left 2
WINDOW 3 36 40 Left 2
SYMATTR InstName R4
SYMATTR Value 10K
SYMBOL cap 48 480 R0
SYMATTR InstName C3
SYMATTR Value 10µF
SYMBOL res -64 -16 R0
SYMATTR InstName R5
SYMATTR Value 22K
SYMBOL res 112 -64 R90
WINDOW 0 0 56 VBottom 2
WINDOW 3 32 56 VTop 2
SYMATTR InstName R6
SYMATTR Value 22K
SYMBOL res -240 96 R180
WINDOW 0 36 76 Left 2
WINDOW 3 36 40 Left 2
SYMATTR InstName R7
SYMATTR Value 22K
SYMBOL cap -176 0 R0
SYMATTR InstName C4
SYMATTR Value 10µF
SYMBOL cap -352 160 R90
WINDOW 0 0 32 VBottom 2
WINDOW 3 32 32 VTop 2
SYMATTR InstName C5
SYMATTR Value 1µF
SYMBOL res -480 192 R0
SYMATTR InstName R8
SYMATTR Value 1m
SYMBOL voltage 160 -240 R90
WINDOW 0 -32 56 VBottom 2
WINDOW 3 32 56 VTop 2
WINDOW 123 0 0 Left 2
WINDOW 39 0 0 Left 2
SYMATTR InstName V1
SYMATTR Value 16V
SYMBOL voltage -624 192 R0
WINDOW 123 0 0 Left 2
WINDOW 39 0 0 Left 2
SYMATTR InstName V2
SYMATTR Value SINE(1.5 1.5 10k)
SYMBOL Opamps\\OP37 192 96 R0
SYMATTR InstName U2
SYMBOL speaker 816 160 R0
SYMATTR InstName X1
TEXT -658 616 Left 2 !.tran 0.001
