Version 4
SHEET 1 1536 680
WIRE -416 -48 -448 -48
WIRE -384 -48 -416 -48
WIRE -272 -48 -304 -48
WIRE -240 -48 -272 -48
WIRE -208 -48 -240 -48
WIRE -96 -48 -128 -48
WIRE 16 -48 -96 -48
WIRE 48 -48 16 -48
WIRE 128 -48 48 -48
WIRE 160 -48 128 -48
WIRE 272 -48 240 -48
WIRE 352 -48 272 -48
WIRE 384 -48 352 -48
WIRE -240 -32 -240 -48
WIRE -240 64 -240 48
WIRE -208 64 -240 64
WIRE -96 64 -96 -48
WIRE -96 64 -128 64
WIRE 128 64 128 -48
WIRE 384 64 384 -48
WIRE -416 80 -416 -48
WIRE -240 80 -240 64
WIRE 16 80 16 -48
WIRE 272 80 272 -48
WIRE -240 176 -240 160
WIRE -208 176 -240 176
WIRE -96 176 -96 64
WIRE -96 176 -128 176
WIRE -240 192 -240 176
WIRE 560 224 496 224
WIRE 16 256 16 144
WIRE 272 256 272 144
WIRE 496 256 496 224
WIRE -240 288 -240 272
WIRE -208 288 -240 288
WIRE -96 288 -96 176
WIRE -96 288 -128 288
WIRE -416 368 -416 160
WIRE -416 368 -448 368
WIRE 16 368 16 336
WIRE 16 368 -416 368
WIRE 128 368 128 144
WIRE 128 368 16 368
WIRE 272 368 272 336
WIRE 272 368 128 368
WIRE 384 368 384 144
WIRE 384 368 272 368
WIRE 496 368 496 336
WIRE 496 368 384 368
FLAG 560 224 Pa
IOPIN 560 224 Out
FLAG -448 -48 i
IOPIN -448 -48 In
FLAG -272 -48 1
FLAG 48 -48 2
FLAG 352 -48 3
FLAG -448 368 gnd
IOPIN -448 368 In
SYMBOL res -224 64 R180
WINDOW 0 36 76 Left 2
WINDOW 3 36 40 Left 2
SYMATTR InstName Rvc1
SYMATTR Value 3
SYMBOL res -224 176 R180
WINDOW 0 36 76 Left 2
WINDOW 3 36 40 Left 2
SYMATTR InstName Rvc2
SYMATTR Value 15
SYMBOL res -224 288 R180
WINDOW 0 36 76 Left 2
WINDOW 3 36 40 Left 2
SYMATTR InstName Rvc3
SYMATTR Value 75
SYMBOL res -288 -64 R90
WINDOW 0 0 56 VBottom 2
WINDOW 3 32 56 VTop 2
SYMATTR InstName Rvc
SYMATTR Value 3.8
SYMBOL ind -224 -32 R270
WINDOW 0 32 56 VTop 2
WINDOW 3 5 56 VBottom 2
SYMATTR InstName Lvc1
SYMATTR Value 4m5
SYMBOL ind -224 80 R270
WINDOW 0 32 56 VTop 2
WINDOW 3 5 56 VBottom 2
SYMATTR InstName Lvc2
SYMATTR Value 3m0
SYMBOL ind -224 192 R270
WINDOW 0 32 56 VTop 2
WINDOW 3 5 56 VBottom 2
SYMATTR InstName Lvc3
SYMATTR Value 2m0
SYMBOL ind 144 -32 R270
WINDOW 0 32 56 VTop 2
WINDOW 3 5 56 VBottom 2
WINDOW 39 -25 57 VBottom 2
SYMATTR InstName Leb
SYMATTR Value 62m
SYMATTR SpiceLine Rpar=200
SYMBOL cap 0 80 R0
SYMATTR InstName Cema
SYMATTR Value 0m5
SYMBOL ind 112 48 R0
WINDOW 39 36 108 Left 2
SYMATTR SpiceLine Rpar=90
SYMATTR InstName Lesa
SYMATTR Value 200m
SYMBOL ind 368 48 R0
WINDOW 39 36 108 Left 2
SYMATTR SpiceLine Rpar=80
SYMATTR InstName Lesp
SYMATTR Value 110m
SYMBOL cap 256 80 R0
SYMATTR InstName Cemp
SYMATTR Value 1m5
SYMBOL ind -224 304 R270
WINDOW 0 32 56 VTop 2
WINDOW 3 5 56 VBottom 2
SYMATTR InstName Lvc4
SYMATTR Value 1m3
SYMBOL voltage 16 240 R0
WINDOW 0 40 40 Left 2
WINDOW 3 40 72 Left 2
SYMATTR InstName Vaa
SYMATTR Value 0
SYMBOL voltage 272 240 R0
WINDOW 0 40 40 Left 2
WINDOW 3 40 72 Left 2
SYMATTR InstName Vap
SYMATTR Value 0
SYMBOL bv 496 240 R0
WINDOW 3 0 160 Center 2
SYMATTR Value V= 588m*I(Vaa)-235m*I(Vap)
SYMATTR InstName Ba
SYMBOL current -416 160 R180
WINDOW 0 24 88 Left 2
WINDOW 3 24 0 Left 2
WINDOW 123 0 0 Left 2
WINDOW 39 0 0 Left 2
SYMATTR InstName I1
SYMATTR Value AC
TEXT 480 64 Left 2 ;Plot as: V(Pa)/V(i)
TEXT 480 32 Left 2 ;Acoustic Output
TEXT -256 -112 Center 2 ;Voice Coil
TEXT 200 -168 Center 2 ;Air in Box
TEXT 328 -120 Center 2 ;Passive Piston
TEXT 72 -112 Center 2 ;Active Piston
TEXT 72 -272 Center 2 ;Speaker Model - analog@ieee.org
TEXT 480 -48 Left 2 ;Impedance
TEXT 480 -16 Left 2 ;Plot as: V(i)
TEXT -384 -192 Left 2 !.ac oct 10 1 10k
TEXT -392 -168 Left 2 !.wave test.wav 16 44.1k V(Pa)
